Ibuprofen
     RDKit          3D

 33 33  0  0  0  0  0  0  0  0999 V2000
   -4.5763   -0.6183    0.3091 C   0  0  0  0  0  0  0  0  0  0  0  0
   -3.1883   -0.0514    0.0993 C   0  0  0  0  0  0  0  0  0  0  0  0
   -2.9220    1.0085    1.0986 C   0  0  0  0  0  0  0  0  0  0  0  0
   -2.1863   -1.1662    0.0784 C   0  0  0  0  0  0  0  0  0  0  0  0
   -0.8002   -0.7258   -0.1203 C   0  0  0  0  0  0  0  0  0  0  0  0
   -0.0047   -0.4164    0.9524 C   0  0  0  0  0  0  0  0  0  0  0  0
    1.3137    0.0040    0.7953 C   0  0  0  0  0  0  0  0  0  0  0  0
    1.8376    0.1124   -0.4944 C   0  0  0  0  0  0  0  0  0  0  0  0
    1.0375   -0.1983   -1.5633 C   0  0  0  0  0  0  0  0  0  0  0  0
   -0.2638   -0.6116   -1.3733 C   0  0  0  0  0  0  0  0  0  0  0  0
    3.2411    0.5579   -0.7054 C   0  0  0  0  0  0  0  0  0  0  0  0
    3.4399    1.9440   -0.1792 C   0  0  0  0  0  0  0  0  0  0  0  0
    4.1963   -0.4201   -0.1247 C   0  0  0  0  0  0  0  0  0  0  0  0
    5.0164   -0.1103    0.7836 O   0  0  0  0  0  0  0  0  0  0  0  0
    4.2130   -1.7226   -0.5727 O   0  0  0  0  0  0  0  0  0  0  0  0
   -4.8701   -0.4079    1.3567 H   0  0  0  0  0  0  0  0  0  0  0  0
   -4.5464   -1.7033    0.1161 H   0  0  0  0  0  0  0  0  0  0  0  0
   -5.3168   -0.1552   -0.3991 H   0  0  0  0  0  0  0  0  0  0  0  0
   -3.1910    0.4033   -0.9259 H   0  0  0  0  0  0  0  0  0  0  0  0
   -1.8685    1.2375    1.2803 H   0  0  0  0  0  0  0  0  0  0  0  0
   -3.3788    0.7664    2.1020 H   0  0  0  0  0  0  0  0  0  0  0  0
   -3.4229    1.9635    0.7906 H   0  0  0  0  0  0  0  0  0  0  0  0
   -2.3095   -1.7400    1.0433 H   0  0  0  0  0  0  0  0  0  0  0  0
   -2.4245   -1.8940   -0.7241 H   0  0  0  0  0  0  0  0  0  0  0  0
   -0.3469   -0.4779    1.9881 H   0  0  0  0  0  0  0  0  0  0  0  0
    1.9379    0.2475    1.6503 H   0  0  0  0  0  0  0  0  0  0  0  0
    1.4712   -0.1055   -2.5656 H   0  0  0  0  0  0  0  0  0  0  0  0
   -0.8551   -0.8464   -2.2714 H   0  0  0  0  0  0  0  0  0  0  0  0
    3.4189    0.5630   -1.7972 H   0  0  0  0  0  0  0  0  0  0  0  0
    2.4933    2.5211   -0.3700 H   0  0  0  0  0  0  0  0  0  0  0  0
    4.2476    2.4838   -0.7201 H   0  0  0  0  0  0  0  0  0  0  0  0
    3.6378    1.9220    0.9283 H   0  0  0  0  0  0  0  0  0  0  0  0
    4.9702   -2.3637   -0.4950 H   0  0  0  0  0  0  0  0  0  0  0  0
  1  2  1  0
  2  3  1  0
  2  4  1  0
  4  5  1  0
  5  6  2  0
  6  7  1  0
  7  8  2  0
  8  9  1  0
  9 10  2  0
  8 11  1  0
 11 12  1  0
 11 13  1  0
 13 14  2  0
 13 15  1  0
 10  5  1  0
  1 16  1  0
  1 17  1  0
  1 18  1  0
  2 19  1  0
  3 20  1  0
  3 21  1  0
  3 22  1  0
  4 23  1  0
  4 24  1  0
  6 25  1  0
  7 26  1  0
  9 27  1  0
 10 28  1  0
 11 29  1  0
 12 30  1  0
 12 31  1  0
 12 32  1  0
 15 33  1  0
M  END
$$$$
